Circuit: * C:\Users\Si Teng Wu\OneDrive - University of Cape Town\2024\EEE4022S\IOT_Retro_Display_EEE4022S\LTspice\Led Driver.asc

R9: both pins shorted together -- ignoring.
Limiting rise time of source v1 to 1e-006
Limiting fall time of source v1 to 1e-006
Instance "m:u5:2": Length shorter than recommended for a level 3 MOSFET.
Instance "m:u4:2": Length shorter than recommended for a level 3 MOSFET.
Instance "m:u3:2": Length shorter than recommended for a level 3 MOSFET.
Instance "m:u1:2": Length shorter than recommended for a level 3 MOSFET.
Direct Newton iteration failed to find .op point.  (Use ".option noopiter" to skip.)
Starting Gmin stepping
Gmin = 10
Gmin = 1.07374
Gmin = 0.115292
Gmin = 0.0123794
Gmin = 0.00132923
Gmin = 0.000142725
Gmin = 1.5325e-005
Gmin = 1.6455e-006
Gmin = 1.76685e-007
Gmin = 1.89714e-008
Gmin = 2.03704e-009
Gmin = 2.18725e-010
Gmin = 2.34854e-011
Gmin = 2.52173e-012
Gmin = 2.70769e-013
Gmin = 0
Gmin stepping succeeded in finding the operating point.


Date: Tue Sep 10 19:04:46 2024
Total elapsed time: 1.501 seconds.

tnom = 27
temp = 27
method = modified trap
totiter = 124382
traniter = 123900
tranpoints = 61889
accept = 49255
rejected = 12634
matrix size = 39
fillins = 5
solver = Normal
Matrix Compiler1: 3.35 KB object code size  0.5/0.3/[0.2]
Matrix Compiler2: 3.74 KB object code size  0.4/0.5/[0.2]

