Circuit: * C:\Users\Si Teng Wu\OneDrive - University of Cape Town\2024\EEE4022S\IOT_Retro_Display_EEE4022S\LTspice\Led Driver.asc

Limiting rise time of source v1 to 2e-006
Limiting fall time of source v1 to 2e-006
Direct Newton iteration failed to find .op point.  (Use ".option noopiter" to skip.)
Starting Gmin stepping
Gmin = 10
Gmin = 1.07374
Gmin = 0.115292
Gmin = 0.0123794
Gmin = 0.00132923
Gmin = 0.000142725
Gmin = 1.5325e-005
Gmin = 1.6455e-006
Gmin = 1.76685e-007
Gmin = 1.89714e-008
Gmin = 2.03704e-009
Gmin = 2.18725e-010
Gmin = 2.34854e-011
Gmin = 2.52173e-012
Gmin = 2.70769e-013
Gmin = 0
Gmin stepping succeeded in finding the operating point.


Date: Mon Sep 09 05:14:20 2024
Total elapsed time: 16.422 seconds.

tnom = 27
temp = 27
method = modified trap
totiter = 1107165
traniter = 1106710
tranpoints = 550009
accept = 430008
rejected = 120001
matrix size = 66
fillins = 1
solver = Normal
Matrix Compiler1: 3.70 KB object code size  0.9/0.5/[0.3]
Matrix Compiler2: 5.36 KB object code size  0.4/0.6/[0.3]

