Circuit: * C:\Users\Si Teng Wu\OneDrive - University of Cape Town\2024\EEE4022S\IOT_Retro_Display_EEE4022S\LTspice\Level Shifter.asc

Direct Newton iteration for .op point succeeded.

Date: Mon Sep 09 23:55:04 2024
Total elapsed time: 0.147 seconds.

tnom = 27
temp = 27
method = modified trap
totiter = 3300
traniter = 3293
tranpoints = 1094
accept = 1082
rejected = 12
matrix size = 11
fillins = 2
solver = Normal
Matrix Compiler1: 600 bytes object code size  0.2/0.2/[0.1]
Matrix Compiler2: 867 bytes object code size  0.2/0.2/[0.1]

