Circuit: * C:\Users\Si Teng Wu\OneDrive - University of Cape Town\2024\EEE4022S\IOT_Retro_Display_EEE4022S\LTspice\Level Shifter.asc

Direct Newton iteration for .op point succeeded.

Date: Mon Sep 30 13:09:22 2024
Total elapsed time: 0.062 seconds.

tnom = 27
temp = 27
method = modified trap
totiter = 3855
traniter = 3848
tranpoints = 1267
accept = 1217
rejected = 50
matrix size = 10
fillins = 1
solver = Normal
Matrix Compiler1: 462 bytes object code size  0.1/0.1/[0.0]
Matrix Compiler2: 768 bytes object code size  0.1/0.1/[0.1]

