Circuit: * C:\Users\Si Teng Wu\OneDrive - University of Cape Town\2024\EEE4022S\IOT_Retro_Display_EEE4022S\LTspice\MOSFET Demux.asc

Limiting rise time of source v3 to 5e-006
Limiting fall time of source v3 to 5e-006
WARNING: Node NC_02 is floating.

WARNING: Less than two connections to node NC_01.  This node is used by V1.
WARNING: Less than two connections to node NC_02.  This node is used by V1.
Instance "m:u1:2": Length shorter than recommended for a level 3 MOSFET.
Direct Newton iteration for .op point succeeded.

Date: Mon Sep 09 21:33:56 2024
Total elapsed time: 0.108 seconds.

tnom = 27
temp = 27
method = modified trap
totiter = 4918
traniter = 4913
tranpoints = 2358
accept = 2009
rejected = 349
matrix size = 11
fillins = 0
solver = Normal
Matrix Compiler1: 522 bytes object code size  0.2/0.1/[0.1]
Matrix Compiler2: 851 bytes object code size  0.1/0.2/[0.1]

