Circuit: * C:\Users\Si Teng Wu\OneDrive - University of Cape Town\2024\EEE4022S\IOT_Retro_Display_EEE4022S\LTspice\MOSFET Demux.asc

Limiting rise time of source v2 to 5e-006
Limiting fall time of source v2 to 5e-006
Limiting rise time of source v1 to 5e-006
Limiting fall time of source v1 to 5e-006
WARNING: Less than two connections to node RX1.  This node is used by M1.
WARNING: Less than two connections to node TX2.  This node is used by M3.
Direct Newton iteration for .op point succeeded.

Date: Wed Sep 11 01:03:51 2024
Total elapsed time: 0.093 seconds.

tnom = 27
temp = 27
method = modified trap
totiter = 8251
traniter = 8216
tranpoints = 2728
accept = 2320
rejected = 408
matrix size = 26
fillins = 8
solver = Normal
Matrix Compiler1: 1.92 KB object code size  0.3/0.2/[0.2]
Matrix Compiler2: 2.24 KB object code size  0.2/0.4/[0.2]

