Circuit: * C:\Users\Si Teng Wu\OneDrive - University of Cape Town\2024\EEE4022S\IOT_Retro_Display_EEE4022S\LTspice\MOSFET Demux.asc

Limiting rise time of source v3 to 5e-006
Limiting fall time of source v3 to 5e-006
Direct Newton iteration for .op point succeeded.

Date: Sat Sep 07 23:48:16 2024
Total elapsed time: 0.076 seconds.

tnom = 27
temp = 27
method = modified trap
totiter = 5383
traniter = 5377
tranpoints = 1848
accept = 1684
rejected = 164
matrix size = 9
fillins = 0
solver = Normal
Matrix Compiler1: 394 bytes object code size  0.1/0.1/[0.1]
Matrix Compiler2: 667 bytes object code size  0.1/0.2/[0.1]

